ucbt2.dss
New load.bt28031 phases=3 bus=1004611317.1.2.3.0 model=1 kv=0.22 kw=0.8725671852739725 pf=0.92 conn=wye daily=COM1_5 !trafo=405241
New load.bt28032 phases=3 bus=1002662496.1.2.3.0 model=1 kv=0.22 kw=1.0866106936073059 pf=0.92 conn=wye daily=COM1_5 !trafo=405794
New load.bt28046 phases=3 bus=1002730438.1.2.3.0 model=1 kv=0.22 kw=0.4887133597031963 pf=0.92 conn=wye daily=COM1_5 !trafo=408482
New load.bt84003 phases=3 bus=1002649945.1.2.3.0 model=1 kv=0.22 kw=7.040130840410961 pf=0.92 conn=wye daily=IND1_6 !trafo=405241
New load.bt84004 phases=3 bus=1002662503.1.2.3.0 model=1 kv=0.22 kw=2.1929630078767124 pf=0.92 conn=wye daily=IND1_6 !trafo=405794
New load.bt84012 phases=3 bus=1002763590.1.2.3.0 model=1 kv=0.22 kw=13.487898781621002 pf=0.92 conn=wye daily=IND1_7 !trafo=409924
New load.bt508616 phases=3 bus=1002763611.1.2.3.0 model=1 kv=0.22 kw=0.0013698630136986301 pf=0.92 conn=wye daily=COM1_5 !trafo=409924
New load.bt521506 phases=3 bus=1957295.1.2.3.0 model=1 kv=0.22 kw=0.0013698630136986301 pf=0.92 conn=wye daily=IND1_7 !trafo=408650
New load.bt1211295 phases=3 bus=1002750752.1.2.3.0 model=1 kv=0.22 kw=0.2081897743150685 pf=0.92 conn=wye daily=COM1_23 !trafo=409273
New load.bt1211315 phases=3 bus=1002698483.1.2.3.0 model=1 kv=0.22 kw=0.31281853002283105 pf=0.92 conn=wye daily=COM1_23 !trafo=407292
New load.bt1211316 phases=2 bus=1002698371.2.3.0 model=1 kv=0.22 kw=0.3268112465753425 pf=0.92 conn=wye daily=COM1_23 !trafo=407292
New load.bt1611909 phases=3 bus=1002750745.1.2.3.0 model=1 kv=0.22 kw=0.20019458276255708 pf=0.92 conn=wye daily=RES1_22 !trafo=409273
New load.bt1611910 phases=2 bus=1002750759.2.3.0 model=1 kv=0.22 kw=0.2030190606164384 pf=0.92 conn=wye daily=RES1_22 !trafo=409273
New load.bt1611911 phases=3 bus=1002750780.1.2.3.0 model=1 kv=0.22 kw=0.22295644817351595 pf=0.92 conn=wye daily=RES1_22 !trafo=409273
New load.bt1611912 phases=3 bus=1002750794.1.2.3.0 model=1 kv=0.22 kw=0.1316858654109589 pf=0.92 conn=wye daily=RES1_22 !trafo=409273
New load.bt1611913 phases=2 bus=1002750766.3.1.0 model=1 kv=0.22 kw=0.49051041210045665 pf=0.92 conn=wye daily=RES1_22 !trafo=409273
New load.bt1611914 phases=2 bus=1002750787.1.2.0 model=1 kv=0.22 kw=0.21110851666666666 pf=0.92 conn=wye daily=RES1_22 !trafo=409273
New load.bt1611915 phases=2 bus=1002750808.1.2.0 model=1 kv=0.22 kw=0.010720215981735158 pf=0.92 conn=wye daily=RES1_22 !trafo=409273
New load.bt1611916 phases=3 bus=1002750801.1.2.3.0 model=1 kv=0.22 kw=0.3425833678082192 pf=0.92 conn=wye daily=RES1_22 !trafo=409273
New load.bt1612213 phases=3 bus=1002698525.1.2.3.0 model=1 kv=0.22 kw=0.028537796917808222 pf=0.92 conn=wye daily=RES1_22 !trafo=407292
New load.bt1612214 phases=3 bus=1002698525.1.2.3.0 model=1 kv=0.22 kw=0.09145003824200913 pf=0.92 conn=wye daily=RES1_22 !trafo=407292
New load.bt1612238 phases=1 bus=1002698518.3.0 model=1 kv=0.127 kw=0.14299335627853882 pf=0.92 conn=wye daily=RES1_22 !trafo=407292
New load.bt1612239 phases=2 bus=1002698448.2.3.0 model=1 kv=0.22 kw=0.025618901712328772 pf=0.92 conn=wye daily=RES1_22 !trafo=407292
New load.bt1612240 phases=2 bus=1002698406.1.2.0 model=1 kv=0.22 kw=0.2481017724885845 pf=0.92 conn=wye daily=RES1_22 !trafo=407292
New load.bt1612241 phases=2 bus=1002698413.1.2.0 model=1 kv=0.22 kw=0.20274874166666668 pf=0.92 conn=wye daily=RES1_22 !trafo=407292
New load.bt1612242 phases=3 bus=1002698399.1.2.3.0 model=1 kv=0.22 kw=0.10746897888127856 pf=0.92 conn=wye daily=RES1_22 !trafo=407292
New load.bt1612243 phases=3 bus=1002698392.1.2.3.0 model=1 kv=0.22 kw=0.11254323675799087 pf=0.92 conn=wye daily=RES1_22 !trafo=407292
New load.bt1612244 phases=3 bus=1002698378.1.2.3.0 model=1 kv=0.22 kw=0.07508241004566212 pf=0.92 conn=wye daily=RES1_22 !trafo=407292
New load.bt1612245 phases=3 bus=1002698364.1.2.3.0 model=1 kv=0.22 kw=0.06260913938356165 pf=0.92 conn=wye daily=RES1_22 !trafo=407292
New load.bt1612246 phases=3 bus=1002698336.1.2.3.0 model=1 kv=0.22 kw=0.08736216289954339 pf=0.92 conn=wye daily=RES1_22 !trafo=407292
New load.bt1612247 phases=3 bus=1002698343.1.2.3.0 model=1 kv=0.22 kw=0.01250196803652968 pf=0.92 conn=wye daily=RES1_22 !trafo=407292
New load.bt1612252 phases=3 bus=1002686884.1.2.3.0 model=1 kv=0.22 kw=0.12069105194063928 pf=0.92 conn=wye daily=RES1_22 !trafo=406753
New load.bt1612253 phases=1 bus=1002686835.3.0 model=1 kv=0.127 kw=0.19191834155251142 pf=0.92 conn=wye daily=RES1_22 !trafo=406753
New load.bt1612254 phases=2 bus=1002686779.2.3.0 model=1 kv=0.22 kw=0.29121956906392693 pf=0.92 conn=wye daily=RES1_22 !trafo=406753
New load.bt1612255 phases=2 bus=1002686758.2.3.0 model=1 kv=0.22 kw=0.18341790216894976 pf=0.92 conn=wye daily=RES1_22 !trafo=406753
New load.bt1612256 phases=2 bus=1002686730.1.2.0 model=1 kv=0.22 kw=0.14388564657534247 pf=0.92 conn=wye daily=RES1_22 !trafo=406753
New load.bt1612257 phases=2 bus=1002686716.2.3.0 model=1 kv=0.22 kw=0.24858328139269403 pf=0.92 conn=wye daily=RES1_22 !trafo=406753
New load.bt1612258 phases=2 bus=1002686772.2.3.0 model=1 kv=0.22 kw=0.22525929372146117 pf=0.92 conn=wye daily=RES1_22 !trafo=406753
New load.bt1612259 phases=3 bus=1002686877.1.2.3.0 model=1 kv=0.22 kw=0.19480561872146118 pf=0.92 conn=wye daily=RES1_22 !trafo=406753
New load.bt1612260 phases=2 bus=1002686891.1.2.0 model=1 kv=0.22 kw=0.03898205 pf=0.92 conn=wye daily=RES1_22 !trafo=406753
New load.bt1612264 phases=3 bus=1002698315.1.2.3.0 model=1 kv=0.22 kw=0.2322310178082192 pf=0.92 conn=wye daily=RES1_22 !trafo=407292
New load.bt1612265 phases=2 bus=1002698301.1.2.0 model=1 kv=0.22 kw=0.19923240456621005 pf=0.92 conn=wye daily=RES1_22 !trafo=407292
New load.bt1612266 phases=2 bus=1002698301.1.2.0 model=1 kv=0.22 kw=0.22141852180365298 pf=0.92 conn=wye daily=RES1_22 !trafo=407292
New load.bt1612267 phases=2 bus=1002698308.2.3.0 model=1 kv=0.22 kw=0.1941253852739726 pf=0.92 conn=wye daily=RES1_22 !trafo=407292
New load.bt1612268 phases=2 bus=1002698245.2.3.0 model=1 kv=0.22 kw=0.11730778984018264 pf=0.92 conn=wye daily=RES1_22 !trafo=407292
New load.bt1612269 phases=2 bus=1003325774.2.3.0 model=1 kv=0.22 kw=0.23240701244292236 pf=0.92 conn=wye daily=RES1_22 !trafo=440101
New load.bt1612270 phases=2 bus=1003325781.1.2.0 model=1 kv=0.22 kw=0.07685454657534246 pf=0.92 conn=wye daily=RES1_22 !trafo=440101
New load.bt1612271 phases=2 bus=1003325753.3.1.0 model=1 kv=0.22 kw=0.3490666950913242 pf=0.92 conn=wye daily=RES1_22 !trafo=440101
New load.bt1612272 phases=1 bus=1003325746.2.0 model=1 kv=0.127 kw=0.07688121267123289 pf=0.92 conn=wye daily=RES1_22 !trafo=440101
New load.bt1612273 phases=3 bus=1002693947.1.2.3.0 model=1 kv=0.22 kw=0.14045908436073057 pf=0.92 conn=wye daily=RES1_22 !trafo=407089
New load.bt1612388 phases=2 bus=1002694080.2.3.0 model=1 kv=0.22 kw=0.141543876826484 pf=0.92 conn=wye daily=RES1_22 !trafo=407089
New load.bt1612389 phases=3 bus=1002694066.1.2.3.0 model=1 kv=0.22 kw=0.24090618207762562 pf=0.92 conn=wye daily=RES1_22 !trafo=407089
New load.bt1612390 phases=3 bus=1002694059.1.2.3.0 model=1 kv=0.22 kw=0.1243016084474886 pf=0.92 conn=wye daily=RES1_22 !trafo=407089
New load.bt1612391 phases=3 bus=1002694059.1.2.3.0 model=1 kv=0.22 kw=0.08911842682648402 pf=0.92 conn=wye daily=RES1_22 !trafo=407089
New load.bt1612392 phases=2 bus=1002694003.1.2.0 model=1 kv=0.22 kw=0.17603006381278538 pf=0.92 conn=wye daily=RES1_22 !trafo=407089
New load.bt1612393 phases=2 bus=1002693996.1.2.0 model=1 kv=0.22 kw=0.3215253122146119 pf=0.92 conn=wye daily=RES1_22 !trafo=407089
New load.bt1612394 phases=2 bus=1002693961.2.3.0 model=1 kv=0.22 kw=0.15608311632420094 pf=0.92 conn=wye daily=RES1_22 !trafo=407089
New load.bt1612395 phases=2 bus=1002693954.2.3.0 model=1 kv=0.22 kw=0.07384435273972605 pf=0.92 conn=wye daily=RES1_22 !trafo=407089
New load.bt1612396 phases=1 bus=1002693940.1.0 model=1 kv=0.127 kw=0.09674117865296804 pf=0.92 conn=wye daily=RES1_22 !trafo=407089
New load.bt1612397 phases=2 bus=1002693912.3.1.0 model=1 kv=0.22 kw=0.2738538763698631 pf=0.92 conn=wye daily=RES1_22 !trafo=407089
New load.bt1612398 phases=2 bus=1002693912.3.1.0 model=1 kv=0.22 kw=0.1041528892694064 pf=0.92 conn=wye daily=RES1_22 !trafo=407089
New load.bt1612399 phases=2 bus=1002693912.3.1.0 model=1 kv=0.22 kw=0.13941137020547947 pf=0.92 conn=wye daily=RES1_22 !trafo=407089
New load.bt1612400 phases=2 bus=1002693919.3.1.0 model=1 kv=0.22 kw=0.30797969337899544 pf=0.92 conn=wye daily=RES1_22 !trafo=407089
New load.bt1612434 phases=2 bus=1002693800.2.3.0 model=1 kv=0.22 kw=0.16426686666666668 pf=0.92 conn=wye daily=RES1_22 !trafo=407089
New load.bt1612435 phases=1 bus=1002693849.3.0 model=1 kv=0.127 kw=0.03430181175799087 pf=0.92 conn=wye daily=RES1_22 !trafo=407089
New load.bt1612436 phases=2 bus=1002693870.1.2.0 model=1 kv=0.22 kw=0.10569404874429225 pf=0.92 conn=wye daily=RES1_22 !trafo=407089
New load.bt1612437 phases=2 bus=1002686667.3.1.0 model=1 kv=0.22 kw=0.3012016141552512 pf=0.92 conn=wye daily=RES1_22 !trafo=406753
New load.bt1612438 phases=2 bus=1002686674.3.1.0 model=1 kv=0.22 kw=0.13968171107305938 pf=0.92 conn=wye daily=RES1_22 !trafo=406753
New load.bt1612439 phases=2 bus=1002686660.1.2.0 model=1 kv=0.22 kw=0.11291490810502282 pf=0.92 conn=wye daily=RES1_22 !trafo=406753
New load.bt1612440 phases=2 bus=1002686632.3.1.0 model=1 kv=0.22 kw=0.30107158618721463 pf=0.92 conn=wye daily=RES1_22 !trafo=406753
New load.bt1612441 phases=2 bus=1002686639.1.2.0 model=1 kv=0.22 kw=0.21830941015981736 pf=0.92 conn=wye daily=RES1_22 !trafo=406753
New load.bt1612442 phases=2 bus=1002686646.1.2.0 model=1 kv=0.22 kw=0.18315619611872147 pf=0.92 conn=wye daily=RES1_22 !trafo=406753
New load.bt1612443 phases=2 bus=1003325697.1.2.0 model=1 kv=0.22 kw=0.2513434511415525 pf=0.92 conn=wye daily=RES1_22 !trafo=440101
New load.bt1612444 phases=2 bus=156133272.1.2.0 model=1 kv=0.22 kw=0.2593279698630137 pf=0.92 conn=wye daily=RES1_22 !trafo=1425137
New load.bt1612445 phases=1 bus=1003325802.1.0 model=1 kv=0.127 kw=0.334084294520548 pf=0.92 conn=wye daily=RES1_22 !trafo=440101
New load.bt1720184 phases=2 bus=1002686723.1.2.0 model=1 kv=0.22 kw=0.0013698630136986301 pf=0.92 conn=wye daily=RES1_22 !trafo=406753
New load.bt1720185 phases=2 bus=1002693989.1.2.0 model=1 kv=0.22 kw=0.0013698630136986301 pf=0.92 conn=wye daily=RES1_22 !trafo=407089
New load.bt1720200 phases=2 bus=1002686695.1.2.0 model=1 kv=0.22 kw=0.0013698630136986301 pf=0.92 conn=wye daily=RES1_22 !trafo=406753
New load.bt1720201 phases=3 bus=1002686653.1.2.3.0 model=1 kv=0.22 kw=0.0013698630136986301 pf=0.92 conn=wye daily=RES1_22 !trafo=406753
New load.bt1720202 phases=1 bus=1002686611.1.0 model=1 kv=0.127 kw=0.0013698630136986301 pf=0.92 conn=wye daily=RES1_22 !trafo=406753
New load.bt1772697 phases=2 bus=1002750724.1.2.0 model=1 kv=0.22 kw=0.4702807180365297 pf=0.92 conn=wye daily=COM1_11 !trafo=409273
New load.bt1772699 phases=2 bus=1002750738.2.3.0 model=1 kv=0.22 kw=0.046600422146118724 pf=0.92 conn=wye daily=COM1_11 !trafo=409273
New load.bt1772700 phases=2 bus=1002750710.1.2.0 model=1 kv=0.22 kw=0.03039037625570776 pf=0.92 conn=wye daily=COM1_11 !trafo=409273
New load.bt1772701 phases=3 bus=1002719077.1.2.3.0 model=1 kv=0.22 kw=0.08228345102739726 pf=0.92 conn=wye daily=COM1_11 !trafo=408076
New load.bt1772703 phases=3 bus=1003275703.1.2.3.0 model=1 kv=0.22 kw=0.493970527283105 pf=0.92 conn=wye daily=COM1_11 !trafo=436335
New load.bt1772704 phases=2 bus=1002704916.2.3.0 model=1 kv=0.22 kw=0.6900771413242011 pf=0.92 conn=wye daily=COM1_11 !trafo=407523
New load.bt1772707 phases=1 bus=1002690930.1.0 model=1 kv=0.127 kw=0.1089421611872146 pf=0.92 conn=wye daily=COM1_11 !trafo=406970
New load.bt1772708 phases=2 bus=1003275542.2.3.0 model=1 kv=0.22 kw=0.24847187625570777 pf=0.92 conn=wye daily=COM1_11 !trafo=436335
New load.bt1772711 phases=2 bus=1003329316.1.2.0 model=1 kv=0.22 kw=0.06391656278538813 pf=0.92 conn=wye daily=COM1_11 !trafo=440367
New load.bt1772712 phases=3 bus=1002697538.1.2.3.0 model=1 kv=0.22 kw=0.25313840456621006 pf=0.92 conn=wye daily=COM1_11 !trafo=407264
New load.bt1772713 phases=2 bus=1002700800.3.1.0 model=1 kv=0.22 kw=0.0039738134703196345 pf=0.92 conn=wye daily=COM1_11 !trafo=407390
New load.bt1772714 phases=2 bus=1002689915.3.1.0 model=1 kv=0.22 kw=0.0354353299086758 pf=0.92 conn=wye daily=COM1_11 !trafo=406928
New load.bt1772715 phases=2 bus=1002690874.2.3.0 model=1 kv=0.22 kw=0.11550502831050229 pf=0.92 conn=wye daily=COM1_11 !trafo=406970
New load.bt1790663 phases=3 bus=1003344828.1.2.3.0 model=1 kv=0.22 kw=4.345377326255708 pf=0.92 conn=wye daily=COM1_20 !trafo=441396
New load.bt1790664 phases=3 bus=1002685148.1.2.3.0 model=1 kv=0.22 kw=0.49014582408675794 pf=0.92 conn=wye daily=COM1_20 !trafo=406704
New load.bt1790665 phases=2 bus=1002685162.3.1.0 model=1 kv=0.22 kw=0.22768694463470318 pf=0.92 conn=wye daily=COM1_20 !trafo=406704
New load.bt1790666 phases=2 bus=1002683524.1.2.0 model=1 kv=0.22 kw=0.3508420484018265 pf=0.92 conn=wye daily=COM1_20 !trafo=406648
New load.bt1790669 phases=3 bus=1002683412.1.2.3.0 model=1 kv=0.22 kw=0.024070800799086755 pf=0.92 conn=wye daily=COM1_20 !trafo=406648
New load.bt1790670 phases=3 bus=1002683454.1.2.3.0 model=1 kv=0.22 kw=0.5121434182648402 pf=0.92 conn=wye daily=COM1_20 !trafo=406648
New load.bt1790671 phases=3 bus=1002685015.1.2.3.0 model=1 kv=0.22 kw=0.20614474394977167 pf=0.92 conn=wye daily=COM1_20 !trafo=406704
New load.bt1790674 phases=2 bus=1004141862.1.2.0 model=1 kv=0.22 kw=0.5172349878995434 pf=0.92 conn=wye daily=COM1_20 !trafo=405731
New load.bt1807303 phases=3 bus=1002719399.1.2.3.0 model=1 kv=0.22 kw=0.1885109658675799 pf=0.92 conn=wye daily=IND1_12 !trafo=408076
New load.bt2010969 phases=3 bus=1002750731.1.2.3.0 model=1 kv=0.22 kw=0.3965476684931507 pf=0.92 conn=wye daily=RES1_8 !trafo=409273
New load.bt2010970 phases=2 bus=1002750738.2.3.0 model=1 kv=0.22 kw=0.14576068915525114 pf=0.92 conn=wye daily=RES1_8 !trafo=409273
New load.bt2010971 phases=3 bus=1002750661.1.2.3.0 model=1 kv=0.22 kw=0.24788985742009134 pf=0.92 conn=wye daily=RES1_8 !trafo=409273
New load.bt2010972 phases=3 bus=1002750696.1.2.3.0 model=1 kv=0.22 kw=0.31849747465753425 pf=0.92 conn=wye daily=RES1_8 !trafo=409273
New load.bt2010973 phases=3 bus=1002750675.1.2.3.0 model=1 kv=0.22 kw=0.2356761106164384 pf=0.92 conn=wye daily=RES1_8 !trafo=409273
New load.bt2010974 phases=1 bus=1002750689.1.0 model=1 kv=0.127 kw=0.28991455650684933 pf=0.92 conn=wye daily=RES1_8 !trafo=409273
New load.bt2010975 phases=2 bus=1002750633.3.1.0 model=1 kv=0.22 kw=0.3122353673515982 pf=0.92 conn=wye daily=RES1_8 !trafo=409273
New load.bt2010976 phases=2 bus=1002750584.3.1.0 model=1 kv=0.22 kw=0.37685934680365296 pf=0.92 conn=wye daily=RES1_8 !trafo=409273
New load.bt2010977 phases=2 bus=1002750619.1.2.0 model=1 kv=0.22 kw=0.11744845707762555 pf=0.92 conn=wye daily=RES1_8 !trafo=409273
New load.bt2010978 phases=3 bus=1002750605.1.2.3.0 model=1 kv=0.22 kw=0.29254272168949774 pf=0.92 conn=wye daily=RES1_8 !trafo=409273
New load.bt2010979 phases=3 bus=1002750612.1.2.3.0 model=1 kv=0.22 kw=0.2425513698630137 pf=0.92 conn=wye daily=RES1_8 !trafo=409273
New load.bt2010980 phases=2 bus=1002750549.1.2.0 model=1 kv=0.22 kw=0.24058824566210044 pf=0.92 conn=wye daily=RES1_8 !trafo=409273
New load.bt2010981 phases=2 bus=1002750535.1.2.0 model=1 kv=0.22 kw=0.48285422728310495 pf=0.92 conn=wye daily=RES1_8 !trafo=409273
New load.bt2010982 phases=3 bus=1002750521.1.2.3.0 model=1 kv=0.22 kw=0.24134928047945206 pf=0.92 conn=wye daily=RES1_8 !trafo=409273
New load.bt2010983 phases=3 bus=1002750528.1.2.3.0 model=1 kv=0.22 kw=0.3170895599315068 pf=0.92 conn=wye daily=RES1_8 !trafo=409273
New load.bt2010984 phases=2 bus=1002750500.3.1.0 model=1 kv=0.22 kw=0.4426594714611872 pf=0.92 conn=wye daily=RES1_8 !trafo=409273
New load.bt2010985 phases=2 bus=1002750493.3.1.0 model=1 kv=0.22 kw=0.21357669155251144 pf=0.92 conn=wye daily=RES1_8 !trafo=409273
New load.bt2010986 phases=2 bus=1002750486.2.3.0 model=1 kv=0.22 kw=0.48666026700913245 pf=0.92 conn=wye daily=RES1_8 !trafo=409273
New load.bt2010987 phases=2 bus=1002750542.1.2.0 model=1 kv=0.22 kw=0.1512591667808219 pf=0.92 conn=wye daily=RES1_8 !trafo=409273
New load.bt2010988 phases=2 bus=1002750591.1.2.0 model=1 kv=0.22 kw=0.36432907842465756 pf=0.92 conn=wye daily=RES1_8 !trafo=409273
New load.bt2010989 phases=2 bus=1002750577.2.3.0 model=1 kv=0.22 kw=0.17729867146118725 pf=0.92 conn=wye daily=RES1_8 !trafo=409273
New load.bt2010990 phases=2 bus=1002750626.1.2.0 model=1 kv=0.22 kw=0.18695776255707763 pf=0.92 conn=wye daily=RES1_8 !trafo=409273
New load.bt2010991 phases=1 bus=1002750682.3.0 model=1 kv=0.127 kw=0.22120779726027395 pf=0.92 conn=wye daily=RES1_8 !trafo=409273
New load.bt2010992 phases=2 bus=1002750668.2.3.0 model=1 kv=0.22 kw=0.312935000456621 pf=0.92 conn=wye daily=RES1_8 !trafo=409273
New load.bt2010993 phases=2 bus=1002750654.2.3.0 model=1 kv=0.22 kw=0.10074460365296804 pf=0.92 conn=wye daily=RES1_8 !trafo=409273
New load.bt2010994 phases=2 bus=1002750717.2.3.0 model=1 kv=0.22 kw=0.21223450262557078 pf=0.92 conn=wye daily=RES1_8 !trafo=409273
New load.bt2010995 phases=2 bus=1002750703.2.3.0 model=1 kv=0.22 kw=0.23688771278538812 pf=0.92 conn=wye daily=RES1_8 !trafo=409273
New load.bt2011007 phases=2 bus=1002750479.1.2.0 model=1 kv=0.22 kw=0.42898851529680365 pf=0.92 conn=wye daily=RES1_8 !trafo=409273
New load.bt2011008 phases=2 bus=1002750437.1.2.0 model=1 kv=0.22 kw=0.360804102739726 pf=0.92 conn=wye daily=RES1_8 !trafo=409273
New load.bt2011009 phases=2 bus=1002750444.1.2.0 model=1 kv=0.22 kw=0.5022312162100456 pf=0.92 conn=wye daily=RES1_8 !trafo=409273
New load.bt2011043 phases=2 bus=1002750451.2.3.0 model=1 kv=0.22 kw=0.2926221883561644 pf=0.92 conn=wye daily=RES1_8 !trafo=409273
New load.bt2011044 phases=2 bus=1002750458.2.3.0 model=1 kv=0.22 kw=0.039314376712328764 pf=0.92 conn=wye daily=RES1_8 !trafo=409273
New load.bt2011045 phases=2 bus=1002727470.3.1.0 model=1 kv=0.22 kw=0.11853552648401827 pf=0.92 conn=wye daily=RES1_8 !trafo=408363
New load.bt2011046 phases=2 bus=1002727470.3.1.0 model=1 kv=0.22 kw=0.13402950730593607 pf=0.92 conn=wye daily=RES1_8 !trafo=408363
New load.bt2011047 phases=2 bus=1002727435.2.3.0 model=1 kv=0.22 kw=0.07396568424657535 pf=0.92 conn=wye daily=RES1_8 !trafo=408363
New load.bt2011048 phases=3 bus=1002727393.1.2.3.0 model=1 kv=0.22 kw=0.3404386329908676 pf=0.92 conn=wye daily=RES1_8 !trafo=408363
New load.bt2011049 phases=3 bus=1002727407.1.2.3.0 model=1 kv=0.22 kw=0.2764770997716895 pf=0.92 conn=wye daily=RES1_8 !trafo=408363
New load.bt2011050 phases=2 bus=1002727330.3.1.0 model=1 kv=0.22 kw=0.2034410890410959 pf=0.92 conn=wye daily=RES1_8 !trafo=408363
New load.bt2011051 phases=2 bus=1002727337.3.1.0 model=1 kv=0.22 kw=0.04172374429223744 pf=0.92 conn=wye daily=RES1_8 !trafo=408363
New load.bt2011052 phases=3 bus=1002727295.1.2.3.0 model=1 kv=0.22 kw=0.5546353952054794 pf=0.92 conn=wye daily=RES1_8 !trafo=408363
New load.bt2011053 phases=3 bus=1002727316.1.2.3.0 model=1 kv=0.22 kw=0.26901636210045665 pf=0.92 conn=wye daily=RES1_8 !trafo=408363
New load.bt2011054 phases=3 bus=1002727302.1.2.3.0 model=1 kv=0.22 kw=0.36985696015981734 pf=0.92 conn=wye daily=RES1_8 !trafo=408363
New load.bt2011055 phases=3 bus=1002727309.1.2.3.0 model=1 kv=0.22 kw=0.10432838641552511 pf=0.92 conn=wye daily=RES1_8 !trafo=408363
New load.bt2011056 phases=2 bus=1002727281.1.2.0 model=1 kv=0.22 kw=0.4099859900684931 pf=0.92 conn=wye daily=RES1_8 !trafo=408363
New load.bt2011057 phases=2 bus=1002727288.1.2.0 model=1 kv=0.22 kw=0.23164003047945209 pf=0.92 conn=wye daily=RES1_8 !trafo=408363
New load.bt2011058 phases=3 bus=1002727239.1.2.3.0 model=1 kv=0.22 kw=0.20147796449771685 pf=0.92 conn=wye daily=RES1_8 !trafo=408363
New load.bt2011059 phases=3 bus=1002727246.1.2.3.0 model=1 kv=0.22 kw=0.20983724235159817 pf=0.92 conn=wye daily=RES1_8 !trafo=408363
New load.bt2011060 phases=2 bus=1002727253.3.1.0 model=1 kv=0.22 kw=0.41404801438356165 pf=0.92 conn=wye daily=RES1_8 !trafo=408363
New load.bt2011061 phases=2 bus=1002727260.2.3.0 model=1 kv=0.22 kw=0.20269302614155252 pf=0.92 conn=wye daily=RES1_8 !trafo=408363
New load.bt2011062 phases=2 bus=1002727211.3.1.0 model=1 kv=0.22 kw=0.20058547796803652 pf=0.92 conn=wye daily=RES1_8 !trafo=408363
New load.bt2011063 phases=2 bus=1002727218.3.1.0 model=1 kv=0.22 kw=0.22094489394977165 pf=0.92 conn=wye daily=RES1_8 !trafo=408363
New load.bt2011064 phases=2 bus=1002727225.1.2.0 model=1 kv=0.22 kw=0.28777760490867577 pf=0.92 conn=wye daily=RES1_8 !trafo=408363
New load.bt2011065 phases=3 bus=1002727232.1.2.3.0 model=1 kv=0.22 kw=0.09595613687214613 pf=0.92 conn=wye daily=RES1_8 !trafo=408363
New load.bt2011066 phases=3 bus=1002727197.1.2.3.0 model=1 kv=0.22 kw=0.1908459595890411 pf=0.92 conn=wye daily=RES1_8 !trafo=408363
New load.bt2011067 phases=3 bus=1002727204.1.2.3.0 model=1 kv=0.22 kw=0.2011908469178082 pf=0.92 conn=wye daily=RES1_8 !trafo=408363
New load.bt2011068 phases=2 bus=1002727134.2.3.0 model=1 kv=0.22 kw=0.19817351598173516 pf=0.92 conn=wye daily=RES1_8 !trafo=408363
New load.bt2011069 phases=2 bus=1002727148.1.2.0 model=1 kv=0.22 kw=0.0013984018264840182 pf=0.92 conn=wye daily=RES1_8 !trafo=408363
New load.bt2011070 phases=2 bus=1002727141.1.2.0 model=1 kv=0.22 kw=0.10827193162100457 pf=0.92 conn=wye daily=RES1_8 !trafo=408363
New load.bt2011071 phases=2 bus=1002727162.2.3.0 model=1 kv=0.22 kw=0.25570430331050226 pf=0.92 conn=wye daily=RES1_8 !trafo=408363
New load.bt2011072 phases=2 bus=1002727155.2.3.0 model=1 kv=0.22 kw=0.22077625570776255 pf=0.92 conn=wye daily=RES1_8 !trafo=408363
New load.bt2011073 phases=2 bus=1002719252.1.2.0 model=1 kv=0.22 kw=0.37463677853881283 pf=0.92 conn=wye daily=RES1_8 !trafo=408363
New load.bt2011074 phases=2 bus=1002719259.1.2.0 model=1 kv=0.22 kw=0.17156755913242008 pf=0.92 conn=wye daily=RES1_8 !trafo=408363
New load.bt2011075 phases=2 bus=1002719224.1.2.0 model=1 kv=0.22 kw=0.3401964855022831 pf=0.92 conn=wye daily=RES1_8 !trafo=408076
New load.bt2011076 phases=2 bus=1002719217.1.2.0 model=1 kv=0.22 kw=0.2041796390410959 pf=0.92 conn=wye daily=RES1_8 !trafo=408076
New load.bt2011077 phases=3 bus=1002719427.1.2.3.0 model=1 kv=0.22 kw=0.18627369589041096 pf=0.92 conn=wye daily=RES1_8 !trafo=408363
New load.bt2011078 phases=3 bus=1002719420.1.2.3.0 model=1 kv=0.22 kw=0.18303497294520546 pf=0.92 conn=wye daily=RES1_8 !trafo=408363
New load.bt2011079 phases=2 bus=1002727274.1.2.0 model=1 kv=0.22 kw=0.017579908675799085 pf=0.92 conn=wye daily=RES1_8 !trafo=408363
New load.bt2011080 phases=3 bus=1002727323.1.2.3.0 model=1 kv=0.22 kw=0.17595475308219177 pf=0.92 conn=wye daily=RES1_8 !trafo=408363
New load.bt2011081 phases=2 bus=1002727386.2.3.0 model=1 kv=0.22 kw=0.13194790365296805 pf=0.92 conn=wye daily=RES1_8 !trafo=408363
New load.bt2011082 phases=1 bus=1002727400.2.0 model=1 kv=0.127 kw=0.18776636232876712 pf=0.92 conn=wye daily=RES1_8 !trafo=408363
New load.bt2011083 phases=2 bus=1002727358.3.1.0 model=1 kv=0.22 kw=0.3580955099315069 pf=0.92 conn=wye daily=RES1_8 !trafo=408076
New load.bt2011084 phases=2 bus=1002727351.3.1.0 model=1 kv=0.22 kw=0.1713513560502283 pf=0.92 conn=wye daily=RES1_8 !trafo=408076
New load.bt2011085 phases=2 bus=1002719455.1.2.0 model=1 kv=0.22 kw=0.38226615468036523 pf=0.92 conn=wye daily=RES1_8 !trafo=408076
New load.bt2011086 phases=2 bus=1002719462.1.2.0 model=1 kv=0.22 kw=0.2707840390410959 pf=0.92 conn=wye daily=RES1_8 !trafo=408076
New load.bt2011087 phases=2 bus=1002719385.1.2.0 model=1 kv=0.22 kw=0.19069202294520549 pf=0.92 conn=wye daily=RES1_8 !trafo=408076
New load.bt2011088 phases=3 bus=1002719378.1.2.3.0 model=1 kv=0.22 kw=0.2941037082191781 pf=0.92 conn=wye daily=RES1_8 !trafo=408076
New load.bt2011089 phases=2 bus=1002719364.2.3.0 model=1 kv=0.22 kw=0.3601995987442923 pf=0.92 conn=wye daily=RES1_8 !trafo=408076
New load.bt2011090 phases=1 bus=1002719350.1.0 model=1 kv=0.22 kw=0.2702374773972603 pf=0.92 conn=wye daily=RES1_8 !trafo=408076
New load.bt2011091 phases=2 bus=1002719091.3.1.0 model=1 kv=0.22 kw=0.2507160649543379 pf=0.92 conn=wye daily=RES1_8 !trafo=408076
New load.bt2011092 phases=3 bus=1002719147.1.2.3.0 model=1 kv=0.22 kw=0.4046077208904109 pf=0.92 conn=wye daily=RES1_8 !trafo=408076
New load.bt2011093 phases=2 bus=1002719098.2.3.0 model=1 kv=0.22 kw=0.20298965684931508 pf=0.92 conn=wye daily=RES1_8 !trafo=408076
New load.bt2011094 phases=2 bus=1002719175.2.3.0 model=1 kv=0.22 kw=0.2829856788812785 pf=0.92 conn=wye daily=RES1_8 !trafo=408076
New load.bt2011095 phases=2 bus=1002719168.2.3.0 model=1 kv=0.22 kw=0.19534039029680367 pf=0.92 conn=wye daily=RES1_8 !trafo=408076
New load.bt2011096 phases=2 bus=1002719161.3.1.0 model=1 kv=0.22 kw=0.4277639406392694 pf=0.92 conn=wye daily=RES1_8 !trafo=408076
New load.bt2011097 phases=2 bus=1002719154.3.1.0 model=1 kv=0.22 kw=0.17829666518264842 pf=0.92 conn=wye daily=RES1_8 !trafo=408076
New load.bt2011098 phases=3 bus=1002719203.1.2.3.0 model=1 kv=0.22 kw=0.1275390894977169 pf=0.92 conn=wye daily=RES1_8 !trafo=408076
New load.bt2011099 phases=3 bus=1002719210.1.2.3.0 model=1 kv=0.22 kw=0.3525053618721461 pf=0.92 conn=wye daily=RES1_8 !trafo=408076
New load.bt2011100 phases=2 bus=1002719196.3.1.0 model=1 kv=0.22 kw=0.06149595273972603 pf=0.92 conn=wye daily=RES1_8 !trafo=408076
New load.bt2011101 phases=2 bus=1002719231.2.3.0 model=1 kv=0.22 kw=0.299683478652968 pf=0.92 conn=wye daily=RES1_8 !trafo=408076
New load.bt2011102 phases=2 bus=1002719245.3.1.0 model=1 kv=0.22 kw=0.3733802062785388 pf=0.92 conn=wye daily=RES1_8 !trafo=408076
New load.bt2011103 phases=2 bus=1002719238.3.1.0 model=1 kv=0.22 kw=0.28274526073059364 pf=0.92 conn=wye daily=RES1_8 !trafo=408076
New load.bt2011104 phases=2 bus=1002719287.2.3.0 model=1 kv=0.22 kw=0.0917012591324201 pf=0.92 conn=wye daily=RES1_8 !trafo=408076
New load.bt2011105 phases=2 bus=1002719280.2.3.0 model=1 kv=0.22 kw=0.29110713299086755 pf=0.92 conn=wye daily=RES1_8 !trafo=408076
New load.bt2011106 phases=2 bus=1002719273.1.2.0 model=1 kv=0.22 kw=0.2740071953196347 pf=0.92 conn=wye daily=RES1_8 !trafo=408076
New load.bt2011107 phases=2 bus=1002719266.1.2.0 model=1 kv=0.22 kw=0.44456378869863006 pf=0.92 conn=wye daily=RES1_8 !trafo=408076
New load.bt2011108 phases=2 bus=1002719294.3.1.0 model=1 kv=0.22 kw=0.3746843436073059 pf=0.92 conn=wye daily=RES1_8 !trafo=408076
New load.bt2011109 phases=2 bus=1002719301.3.1.0 model=1 kv=0.22 kw=0.17350214463470318 pf=0.92 conn=wye daily=RES1_8 !trafo=408076
New load.bt2011110 phases=2 bus=1002719357.1.2.0 model=1 kv=0.22 kw=0.23759339965753426 pf=0.92 conn=wye daily=RES1_8 !trafo=408076
...


